&NAMAATESTPROG
  NFLDUA=9,
  NFLDSU=0,
  NSMAX=1535,
  NMSMAX=1439,
  NDGLG=3072,
  NFLEVG=120,
  NDLON=2880,
  NPRINTLEV=1,
  LELAM=.TRUE.,
/
&NAMTRANS
/
&NAMPAR0
/
&NAMPAR1
  LEQ_REGIONS=.FALSE.,
/
&NAMRGRI
/

